SOLVER= MULTIPHYSICS
CONFIG_LIST= (configFlow.cfg, configFEA.cfg)

MARKER_ZONE_INTERFACE= (pressure_side,pressure_side_s, suction_side,suction_side_s)
CONSERVATIVE_INTERPOLATION= NO

%__DIRECT__OUTER_ITER= 30
%__ADJOINT__OUTER_ITER= 10
%__DIRECT__CONV_RESIDUAL_MINVAL= -4
%__ADJOINT__CONV_RESIDUAL_MINVAL= -6

MESH_FILENAME= mesh_def.su2
MESH_OUT_FILENAME= mesh_def.su2
MESH_FORMAT= SU2

OBJECTIVE_FUNCTION= TOPOL_COMPLIANCE
GRAD_OBJFUNC_FILENAME= of_grad.dat

%__DIRECT__SOLUTION_FILENAME= restart.dat
%__ADJOINT__SOLUTION_FILENAME= solution.dat
RESTART_FILENAME= solution.dat
RESTART_ADJ_FILENAME= solution_adj.dat
WRT_ZONE_CONV= YES
WRT_ZONE_HIST= YES
OUTPUT_WRT_FREQ= 999999
RESTART_SOL= NO

% mesh deformation, common for FSI and SU2_DEF/DOT
%__DIRECT__DEFORM_CONSOLE_OUTPUT= YES
DEFORM_NONLINEAR_ITER= 1
DEFORM_LINEAR_SOLVER= CONJUGATE_GRADIENT
DEFORM_LINEAR_SOLVER_PREC= ILU
DEFORM_LINEAR_SOLVER_ERROR= 1e-10
DEFORM_LINEAR_SOLVER_ITER= 1000

% for SU2_DEF/DOT
FFD_TOLERANCE= 1E-10
FFD_ITERATIONS= 500
FFD_DEFINITION= (FFD, -0.3,-0.08,0.0, 0.3,-0.08,0.0, 0.3,0.08,0.0, -0.3,0.08,0.0, 0,0,0, 0,0,0, 0,0,0, 0,0,0)
FFD_DEGREE= (8, 1, 0)
FFD_CONTINUITY= USER_INPUT
DV_KIND= FFD_CONTROL_POINT_2D,FFD_CONTROL_POINT_2D,FFD_CONTROL_POINT_2D,FFD_CONTROL_POINT_2D,FFD_CONTROL_POINT_2D,FFD_CONTROL_POINT_2D,FFD_CONTROL_POINT_2D,FFD_CONTROL_POINT_2D,FFD_CONTROL_POINT_2D,FFD_CONTROL_POINT_2D,FFD_CONTROL_POINT_2D,FFD_CONTROL_POINT_2D,FFD_CONTROL_POINT_2D,FFD_CONTROL_POINT_2D,FFD_CONTROL_POINT_2D,FFD_CONTROL_POINT_2D,FFD_CONTROL_POINT_2D
DV_PARAM= (FFD,1,0,0,1);(FFD,2,0,0,1);(FFD,3,0,0,1);(FFD,4,0,0,1);(FFD,5,0,0,1);(FFD,6,0,0,1);(FFD,7,0,0,1);(FFD,8,0,0,1);(FFD,0,1,0,1);(FFD,1,1,0,1);(FFD,2,1,0,1);(FFD,3,1,0,1);(FFD,4,1,0,1);(FFD,5,1,0,1);(FFD,6,1,0,1);(FFD,7,1,0,1);(FFD,8,1,0,1)
DV_VALUE= __FFD_PTS__

